test/test_files/validation_tests/case13659pegase_resqlim.m
function mpc = case13659pegase_resqlim
%CASE13659PEGASE_RESQLIM

%% MATPOWER Case Format : Version 2
mpc.version = '2';

%%-----  Power Flow Data  -----%%
%% system MVA base
mpc.baseMVA = 100;

%% bus data
%	bus_i	type	Pd	Qd	Gs	Bs	area	Vm	Va	baseKV	zone	Vmax	Vmin
mpc.bus = [
	1	3	0	0	0	0	0	1.031695	0	20	6	1.1	0.9;
	2	1	72.68	45	0	6.61	0	1.00250062	-11.3082277	150	9	1.1	0.9;
	3	1	378.4	98.5	0	16.61	0	0.991896547	-10.2990043	220	6	1.1	0.9;
	4	1	134	19.1	0	0.08	0	1.00505655	9.39936791	154	1	1.1	0.9;
	5	1	151	48.8	0	4.69	0	0.9906553	5.42522747	220	5	1.1	0.9;
	6	1	171.41	23.4	0	2.1	0	1.00445873	21.0828401	220	5	1.1	0.9;
	7	1	45.95	14	0	13.34	0	0.979995867	-22.4643904	220	6	1.1	0.9;
	8	1	343.4	53.1	0.70508	36.832433	0	1.02452556	-15.0166463	380	6	1.1	0.9;
	9	1	-0	-0	0	75.076713	0	0.995376893	12.1913093	380	5	1.1	0.9;
	10	1	31.03	10.3	0	0.65	0	0.935542953	-14.4974935	110	21	1.1	0.9;
	11	1	0	-0	0	3.41	0	1.03851155	0.471967299	154	1	1.1	0.9;
	12	2	0	0	0	0	0	1.004054	96.9194454	20	3	1.1	0.9;
	13	1	14.3	2	0	1.91	0	1.04615153	18.2158232	154	1	1.1	0.9;
	14	1	134	24.7	0	12.44	0	1.02915711	2.9166536	220	5	1.1	0.9;
	15	1	0	0	0	0	0	0.967332813	-11.9505258	150	9	1.1	0.9;
	16	1	-6.11	2	0	0.47	0	1.04839997	-7.11844322	150	9	1.1	0.9;
	17	1	-22.74	-8.32	0	6.5	0	1.01080657	-21.5657409	220	6	1.1	0.9;
	18	2	0	0	0	0	0	1.043087	9.88383854	20	14	1.1	0.9;
	19	1	59.67	26.7	0	12.84	0	1.02981791	-22.4122115	220	4	1.1	0.9;
	20	1	30.6	4.3	0	5.15	0	0.995726941	29.1195653	154	1	1.1	0.9;
	21	1	0	-0	0.234457	-0.195381	0	1.0244617	-14.1526033	380	6	1.1	0.9;
	22	1	67.67	12.1	0	2.18	0	1.01262322	33.9629925	220	3	1.1	0.9;
	23	1	0	0	0.295874	20.603438	0	1.02325273	45.4573926	380	3	1.1	0.9;
	24	1	25.33	7.5	0	2.39	0	0.977846643	-14.0177558	110	12	1.1	0.9;
	25	1	1.4	0.2	0	4.93	0	1.01073084	29.6433779	154	1	1.1	0.9;
	26	1	161.2	39.3	0	30.71	0	1.03237614	5.31849648	220	5	1.1	0.9;
	27	1	0	-0	0	0.85	0	1.03239013	8.79999429	220	5	1.1	0.9;
	28	1	19.62	7.1	0	1.15	0	0.999412976	-5.27597421	110	19	1.1	0.9;
	29	2	0	0	0	0	0	1.033319	0.0748627558	20	18	1.1	0.9;
	30	1	31.94	8.8	0	0.73	0	1.01552477	-5.66651849	110	22	1.1	0.9;
	31	1	0	-0	0.235277	0.313936	0	1.02952564	40.0854875	220	3	1.1	0.9;
	32	1	167.3	54.8	0	110.54	0	1.01036858	24.7535929	380	5	1.1	0.9;
	33	2	0	0	0	0	0	1.018631	-12.8755173	20	4	1.1	0.9;
	34	1	-0	0	0	14.82	0	1.04982375	40.079249	380	13	1.1	0.9;
	35	1	0	0	0	0	0	1.00983793	-11.7586425	150	9	1.1	0.9;
	36	1	152.9	49.4	0	27.65	0	0.983894582	13.5201567	380	5	1.1	0.9;
	37	1	-0	0	0	0.56	0	1.02808723	-10.1451767	150	9	1.1	0.9;
	38	1	69.68	43.2	0	6.3	0	0.918518605	-13.928938	150	9	1.1	0.9;
	39	2	0	0	0	0	0	1.073284	-1.02107718	20	9	1.1	0.9;
	40	1	0	-0	0	37.54	0	1.00280336	-16.3947959	220	4	1.1	0.9;
	41	1	0	-0	0	0.25	0	1.02084564	-11.8722273	220	4	1.1	0.9;
	42	2	0	0	0	0	0	0.985213	25.634389	11	1	1.1	0.9;
	43	1	13.51	4.9	0	1.8	0	1.02316403	-3.52828007	110	19	1.1	0.9;
	44	1	10.51	3.5	0	0.31	0	0.990884283	-12.2464147	110	12	1.1	0.9;
	45	2	0	0	0	0	0	1.012099	-20.1793371	20	4	1.1	0.9;
	46	1	-0	0	0.12	15.34	0	1.0406259	-0.112736679	220	19	1.1	0.9;
	47	1	9.21	2.6	0	2	0	0.975606292	-7.7398431	110	18	1.1	0.9;
	48	1	42.75	12.8	0	13.3	0	1.05676211	52.9210096	220	8	1.1	0.9;
	49	1	-0	0	0.019959	0.320041	0	0.998827813	-11.7129766	150	10	1.1	0.9;
	50	1	16.02	4.54	0	0.1	0	0.983507306	-9.94055662	110	23	1.1	0.9;
	51	2	0	0	0	0	0	1.011416	41.5772225	14.4	1	1.1	0.9;
	52	1	27.9	4	0	4.23	0	0.988100895	13.1802062	154	1	1.1	0.9;
	53	1	20.82	7.9	0	26.89	0	1.01610368	-22.7712966	380	4	1.1	0.9;
	54	2	0	0	0	0	0	1.021005	21.8353394	20	14	1.1	0.9;
	55	1	0	0	0	7.27	0	1.0372744	5.05827869	220	5	1.1	0.9;
	56	1	10.11	3.7	0	0.81	0	1.04365715	-4.03889081	110	19	1.1	0.9;
	57	1	10.01	2.7	0	1.14	0	0.954269514	-7.68511563	110	18	1.1	0.9;
	58	1	6.31	-0	0	0.67	0	0.98111727	-5.9672995	110	18	1.1	0.9;
	59	1	2.9	0.9	0	0.6	0	1.03861502	-5.03477675	110	15	1.1	0.9;
	60	1	-0	0	0.318913	17.760815	0	1.00709565	-8.97601189	220	6	1.1	0.9;
	61	1	-0	-0	0.549745	0.432068	0	1.04743022	30.8996824	380	2	1.1	0.9;
	62	2	0	0	0	0	0	1.058268	13.5279159	20	5	1.1	0.9;
	63	2	0	0	0	0	0	1.058268	13.5279159	20	5	1.1	0.9;
	64	1	151.8	48.3	0	5.53	0	1.0085713	-21.5027713	220	4	1.1	0.9;
	65	1	127.6	31.8	0	20.51	0	0.999184297	27.1175306	150	8	1.1	0.9;
	66	2	0	0	0	0	0	1.034768	7.10973508	20	22	1.1	0.9;
	67	1	0	0	0	0.84	0	0.975762296	-7.39720895	110	21	1.1	0.9;
	68	2	0	0	0	0	0	1.035023	-12.0303666	20	4	1.1	0.9;
	69	2	0	0	0	0	0	1.035023	-12.0303666	20	4	1.1	0.9;
	70	1	110.5	-26.8	0	16.37	0	1.00864444	-8.25200601	220	6	1.1	0.9;
	71	1	-0	-0	0	0	0	1.02036104	11.9990548	20	5	1.1	0.9;
	72	1	-0	-0	0	0	0	1.02036104	11.9990548	20	5	1.1	0.9;
	73	1	0	0	0	1.23	0	0.994054763	36.753422	220	3	1.1	0.9;
	74	1	0	-0	0	0	0	1.02500254	16.4901494	20	5	1.1	0.9;
	75	1	0	-0	0	0	0	1.02500254	16.4901494	20	5	1.1	0.9;
	76	1	0	-0	0	0	0	1.02500254	16.4901494	20	5	1.1	0.9;
	77	2	0	0	0	0	0	1.038344	8.83922869	20	5	1.1	0.9;
	78	2	0	0	0	0	0	1.027383	16.5247192	20	5	1.1	0.9;
	79	2	0	0	0	0	0	1.016716	23.3938925	20	5	1.1	0.9;
	80	1	140	79.7	0	6.5	0	1.0082392	10.4138324	220	3	1.1	0.9;
	81	1	21.6	3	0	3.54	0	0.990398305	12.1315432	154	1	1.1	0.9;
	82	1	0	-0	0	2.31	0	1.00485762	8.66824898	380	5	1.1	0.9;
	83	1	119.2	20.7	0	3.31	0	1.01717694	3.23182732	220	5	1.1	0.9;
	84	1	26.43	9.9	0	9.57	0	0.990370876	-14.6793053	110	22	1.1	0.9;
	85	1	0.24	-1.66	0	0.65	0	1.02456732	2.96344349	110	18	1.1	0.9;
	86	2	0	0	0	0	0	1.023881	-6.20116909	20	6	1.1	0.9;
	87	1	-0	0	0	0	0	1.0146498	-10.850205	20	6	1.1	0.9;
	88	1	-0	0	0	0	0	1.0146498	-10.850205	20	6	1.1	0.9;
	89	1	0	0	0	58.57	0	1.06703123	73.2434951	380	3	1.1	0.9;
	90	1	-0	0	0	1.34	0	0.965698013	-5.87303697	110	18	1.1	0.9;
	91	1	187.9	110.2	0	21.25	0	1.01030862	32.280056	380	3	1.1	0.9;
	92	1	14.92	5.5	0	1.31	0	1.05638043	-2.7472375	110	15	1.1	0.9;
	93	1	-18.52	6.1	0	0.79	0	0.933013905	-12.5094574	150	9	1.1	0.9;
	94	2	0	0	0	0	0	1.022611	19.3662921	11	1	1.1	0.9;
	95	1	4.61	1.7	0	2.32	0	0.998122762	1.41000254	110	19	1.1	0.9;
	96	2	0	0	0	0	0	1.043225	-5.83127583	20	4	1.1	0.9;
	97	2	0	0	0	0	0	1.043225	-5.83127583	20	4	1.1	0.9;
	98	2	0	0	0	0	0	1.043225	-5.83127583	20	4	1.1	0.9;
	99	2	0	0	0	0	0	1.031885	-13.2742046	20	4	1.1	0.9;
	100	2	0	0	0	0	0	1.031885	-13.2742046	20	4	1.1	0.9;
	101	2	0	0	0	0	0	1.043225	-5.83127583	20	4	1.1	0.9;
	102	2	0	0	0	0	0	1.043225	-5.83127583	20	4	1.1	0.9;
	103	1	62.87	20.5	0	1.15	0	0.99707634	25.8552669	150	8	1.1	0.9;
	104	2	0	0	0	0	0	1.052257	46.7150587	20	3	1.1	0.9;
	105	1	13.5	14.8	0	132.435168	0	1.1423647	-1.37338279	380	9	1.2	0.8;
	106	1	126.3	42.4	0	55.24	0	1.04208751	30.4691491	150	8	1.1	0.9;
	107	2	0	0	0	0	0	1.028153	79.1196727	20	3	1.1	0.9;
	108	1	6.91	-4.6	0	5.75	0	1.02022299	-14.7630451	220	4	1.1	0.9;
	109	1	15.72	5.2	0	0.11	0	0.997966998	-14.3722398	110	12	1.1	0.9;
	110	2	0	0	0	0	0	1.051233	87.6444147	20	3	1.1	0.9;
	111	1	16.12	4.3	0	0.49	0	1.04070841	-3.3286286	110	23	1.1	0.9;
	112	1	38.74	6.1	0	1.17	0	1.01480236	-27.0133026	220	4	1.1	0.9;
	113	1	22.13	10.7	0	14.21	0	1.05681634	52.9306986	220	8	1.1	0.9;
	114	2	0	0	0	0	0	1.030832	-11.1224223	20	4	1.1	0.9;
	115	2	0	0	0	0	0	1.019	-4.30792278	20	10	1.1	0.9;
	116	1	0	-0	0	0.73	0	1.01574898	-24.1020949	220	4	1.1	0.9;
	117	1	0	0	0	0.83	0	0.982670771	0.886446345	110	18	1.1	0.9;
	118	1	138.8	136.7	0	8.76	0	1.00581974	41.2430891	380	3	1.1	0.9;
	119	1	137.3	66.4	0.174767	14.17407	0	1.04739449	-4.57116514	220	23	1.1	0.9;
	120	1	67.76	19.18	0	1.47	0	0.992228626	88.7354307	150	1	1.1	0.9;
	121	2	0	0	0	0	0	1.045359	8.14377712	20	14	1.1	0.9;
	122	1	0	-0	0	6.62	0	0.988607857	40.9147384	220	3	1.1	0.9;
	123	1	-0	-0	0	7.22	0	1.02607315	45.2041487	380	1	1.1	0.9;
	124	1	1	0.3	0	0.19	0	1.04640625	-3.26170047	110	19	1.1	0.9;
	125	1	20.9	3	0	5.74	0	0.979539166	40.565888	154	1	1.1	0.9;
	126	1	0	0	0	0.12	0	1.05426064	-5.2590713	150	9	1.1	0.9;
	127	1	21.52	5.1	0	0.5	0	1.0159864	6.63672297	110	18	1.1	0.9;
	128	1	71.98	28.8	0	11	0	0.992512247	-5.85090595	220	6	1.1	0.9;
	129	1	0	0	0.205132	4.470744	0	0.998890702	23.7215909	380	2	1.1	0.9;
	130	1	363.25	115.39	0	3.95	0	1.0325782	-0.830897395	220	5	1.1	0.9;
	131	1	192.9	73.3	0	20.75	0	1.00912911	30.7417367	380	3	1.1	0.9;
	132	2	0	0	0	0	0	0.996117	29.1217541	11	1	1.1	0.9;
	133	2	0	0	0	0	0	1.042317	11.037495	20	14	1.1	0.9;
	134	2	0	0	0	0	0	1.044129	-6.07124248	20	4	1.1	0.9;
	135	2	0	0	0	0	0	1.030832	-11.1224223	20	4	1.1	0.9;
	136	2	0	0	0	0	0	1.049674	86.9482024	20	3	1.1	0.9;
	137	1	17.52	6.3	0	0.26	0	1.03727454	0.205951892	110	19	1.1	0.9;
	138	1	33.14	12	0	0.65	0	0.998635646	-2.3182186	110	19	1.1	0.9;
	139	1	40.44	25	0	9.82	0	0.982796273	-10.8505815	150	9	1.1	0.9;
	140	1	193.17	53.37	0	4.58	0	1.00849594	11.8836642	220	5	1.1	0.9;
	141	1	90.7	25.5	0	3.11	0	1.08009358	24.5907295	220	3	1.2	0.8;
	142	1	176.3	-58.9	0	24.77	0	1.01014204	-1.78899846	380	6	1.1	0.9;
	143	1	35.94	22.3	0	0	0	1.04272102	-8.97247726	150	9	1.1	0.9;
	144	2	0	0	0	0	0	1.034631	6.52207088	20	14	1.1	0.9;
	145	2	0	0	0	0	0	1.040587	36.1872763	20	5	1.1	0.9;
	146	2	0	0	0	0	0	1.044313	35.0754168	20	5	1.1	0.9;
	147	2	0	0	0	0	0	1.044313	35.0754168	20	5	1.1	0.9;
	148	1	143.9	123.2	0	72.64	0	1.01403348	31.949044	380	3	1.1	0.9;
	149	1	-0	-0	0	3.77	0	0.998766456	-24.190182	220	6	1.1	0.9;
	150	1	-0	8.4	0	15.72	0	1.03576389	-8.70877754	150	9	1.1	0.9;
	151	2	0	0	0	0	0	1.023215	16.321192	13.8	1	1.1	0.9;
	152	1	51.36	-8.8	0	2.15	0	0.956450633	-29.1504881	220	6	1.1	0.9;
	153	2	0	0	0	0	0	1.027348	17.910804	20	14	1.1	0.9;
	154	2	0	0	0	0	0	1.05252	75.3217697	20	3	1.1	0.9;
	155	1	-0	-0	0	82.55	0	1.02069395	-7.30725738	380	6	1.1	0.9;
	156	2	0	0	0	0	0	1.034597	17.1939631	20	6	1.1	0.9;
	157	1	322.7	11.9	0	10.28	0	0.998575508	-13.948969	380	6	1.1	0.9;
	158	1	303.6	79.8	0.019533	1.690467	0	1.03070753	11.6339271	220	5	1.1	0.9;
	159	1	3.8	1.3	0	0.4	0	1.00356259	5.25336514	110	18	1.1	0.9;
	160	1	137	19.5	0	4.9	0	1.00517575	9.86167561	154	1	1.1	0.9;
	161	2	0	0	0	0	0	1.034597	17.1939631	20	6	1.1	0.9;
	162	2	0	0	0	0	0	1.034597	17.1939631	20	6	1.1	0.9;
	163	1	0	0	0	0	0	0.999237074	-12.1310517	150	9	1.1	0.9;
	164	1	61.07	36	0	3.09	0	1.04197311	1.76523052	220	11	1.1	0.9;
	165	2	0	0	0	0	0	1.030832	-11.1224223	20	4	1.1	0.9;
	166	1	-0	0	0	3.24	0	1.06017064	17.2904175	220	3	1.1	0.9;
	167	1	0	0	0	6.520303	0	1.02522085	12.946432	380	5	1.1	0.9;
	168	1	55.7	7.9	0	4.21	0	0.982789914	33.2479388	154	1	1.1	0.9;
	169	1	0	0	0	4.21	0	1.04425104	7.41990221	220	5	1.1	0.9;
	170	1	1.8	0.7	0	0.3	0	0.968953968	-2.48932068	110	19	1.1	0.9;
	171	1	0	-0	0	0.71	0	1.00425674	-11.2299754	150	9	1.1	0.9;
	172	1	2.5	0	0	0.96	0	0.95423172	-7.92054451	110	18	1.1	0.9;
	173	1	0	0	0	0.09	0	1.07144442	-0.782946764	150	9	1.1	0.9;
	174	1	38.94	11	0	0.64	0	0.98301138	-11.2903542	110	1	1.1	0.9;
	175	1	45.15	14.1	0	0.19	0	1.0555579	-4.13723999	110	15	1.1	0.9;
	176	1	0	-0	0	5.75	0	0.994627775	35.7858162	220	3	1.1	0.9;
	177	1	0	0	0.019004	4.360996	0	1.03998319	5.3615082	220	11	1.1	0.9;
	178	1	0	-0	0.566322	-0.241138	0	1.06629084	36.9226309	220	5	1.1	0.9;
	179	2	0	0	0	0	0	1.023144	-10.830127	20	4	1.1	0.9;
	180	1	17.22	5.7	0	1.22	0	0.938902103	-10.2052767	110	21	1.1	0.9;
	181	1	-0	-0	0	0	0	1.02155571	10.4750156	20	14	1.1	0.9;
	182	2	0	0	0	0	0	1.054937	2.92615319	20	20	1.1	0.9;
	183	1	0	0	0	4.3	0	1.00620966	-1.20217422	220	6	1.1	0.9;
	184	1	23.73	12.7	0	0.52	0	1.02021327	11.206725	220	5	1.1	0.9;
	185	1	121.9	7.4	0	1.34	0	1.01022809	14.7778695	220	3	1.1	0.9;
	186	1	0	-0	0.135375	47.750675	0	1.04319831	-20.8896332	380	10	1.1	0.9;
	187	1	47.35	16.4	0	4.08	0	1.02671987	-13.929278	110	22	1.1	0.9;
	188	1	-0	0	0	0	0	1.02137983	-23.6035593	20	4	1.1	0.9;
	189	1	-0	-0	0	21.39	0	1.0431562	-17.406956	380	1	1.1	0.9;
	190	1	38.14	12.5	0	6.28	0	1.0069049	28.7769085	150	8	1.1	0.9;
	191	1	54.2	7.8	0	94.9	0	0.971393616	28.9707499	400	1	1.1	0.9;
	192	1	130.6	84.9	0	4.22	0	1.00769927	5.03780027	220	7	1.1	0.9;
	193	1	7.91	2.6	0	0.74	0	0.982951289	-11.9485523	110	12	1.1	0.9;
	194	1	42.1	74.61	0	37.58	0	0.983956798	89.0343192	150	1	1.1	0.9;
	195	1	-75.38	7.8	0	29.9	0	1.0589148	-15.4381355	380	10	1.1	0.9;
	196	2	0	0	0	0	0	1.021915	-11.3166953	20	6	1.1	0.9;
	197	2	0	0	0	0	0	1.005341	-3.27574892	20	4	1.1	0.9;
	198	1	41.05	14.3	0	11.53	0	1.00291603	-1.73614392	220	6	1.1	0.9;
	199	1	-0	-0	0	4.14	0	1.02991662	44.5704732	220	8	1.1	0.9;
	200	1	100.9	49.3	0.020067	4.329933	0	0.982030364	23.9441065	220	13	1.1	0.9;
...
];

%% generator data
%	bus	Pg	Qg	Qmax	Qmin	Vg	mBase	status	Pmax	Pmin	Pc1	Pc2	Qc1min	Qc1max	Qc2min	Qc2max	ramp_agc	ramp_10	ramp_30	ramp_q	apf
mpc.gen = [
	1	77.1270975	15.8272946	40	-10	1.031695	100	1	100	28.22	0	0	0	0	0	0	0	0	0	0	0;
	12	238.58	-4.43877892	210	-50	1.004054	100	1	500	100	0	0	0	0	0	0	0	0	0	0	0;
	18	38.02	10.8213477	30	-10	1.043087	100	1	100	25.35	0	0	0	0	0	0	0	0	0	0	0;
	29	34.78	14.5577867	30	-10	1.033319	100	1	100	23.19	0	0	0	0	0	0	0	0	0	0	0;
	33	25.35	8.50377878	40	-10	1.018631	100	1	100	16.9	0	0	0	0	0	0	0	0	0	0	0;
	39	214.6	55.5710348	210	-50	1.073284	100	1	500	100	0	0	0	0	0	0	0	0	0	0	0;
	42	16.1	-4.06852724	20	-20	0.985213	100	1	100	10.73	0	0	0	0	0	0	0	0	0	0	0;
	45	192.55	1.90781355	160	-40	1.012099	100	1	400	100	0	0	0	0	0	0	0	0	0	0	0;
	51	161	0.87426296	90	-90	1.011416	100	1	400	100	0	0	0	0	0	0	0	0	0	0	0;
	54	37.08	5.26743439	30	-10	1.021005	100	1	100	24.72	0	0	0	0	0	0	0	0	0	0	0;
	62	617.7	178.493351	520	-120	1.058268	100	1	1300	400	0	0	0	0	0	0	0	0	0	0	0;
	63	617.7	178.493351	520	-120	1.058268	100	1	1300	400	0	0	0	0	0	0	0	0	0	0	0;
	66	179.12	12.1469392	160	-40	1.034768	100	1	400	100	0	0	0	0	0	0	0	0	0	0	0;
	68	53.72	11.9307572	40	-10	1.035023	100	1	200	35.81	0	0	0	0	0	0	0	0	0	0	0;
	69	53.72	11.9307572	40	-10	1.035023	100	1	200	35.81	0	0	0	0	0	0	0	0	0	0	0;
	77	24.65	6.99849367	30	-10	1.038344	100	1	100	16.43	0	0	0	0	0	0	0	0	0	0	0;
	78	54.48	10.5294271	30	-10	1.027383	100	1	200	36.32	0	0	0	0	0	0	0	0	0	0	0;
	79	18.13	3.5456838	30	-10	1.016716	100	1	100	12.09	0	0	0	0	0	0	0	0	0	0	0;
	86	152.7	32.8780734	80	-20	1.023881	100	1	400	100	0	0	0	0	0	0	0	0	0	0	0;
	94	17.64	3.05375208	20	-10	1.022611	100	1	100	11.76	0	0	0	0	0	0	0	0	0	0	0;
	96	49.42	5.31980216	40	-10	1.043225	100	1	100	32.95	0	0	0	0	0	0	0	0	0	0	0;
	97	49.42	5.31980216	40	-10	1.043225	100	1	100	32.95	0	0	0	0	0	0	0	0	0	0	0;
	98	49.42	5.31980216	40	-10	1.043225	100	1	100	32.95	0	0	0	0	0	0	0	0	0	0	0;
	99	23.85	7.20527953	40	-10	1.031885	100	1	100	15.9	0	0	0	0	0	0	0	0	0	0	0;
	100	23.85	7.20527953	40	-10	1.031885	100	1	100	15.9	0	0	0	0	0	0	0	0	0	0	0;
	101	49.42	5.31980216	40	-10	1.043225	100	1	100	32.95	0	0	0	0	0	0	0	0	0	0	0;
	102	49.42	5.31980216	40	-10	1.043225	100	1	100	32.95	0	0	0	0	0	0	0	0	0	0	0;
	104	87.95	47.4229624	60	-20	1.052257	100	1	200	58.63	0	0	0	0	0	0	0	0	0	0	0;
	107	68.26	10.3101017	60	-20	1.028153	100	1	200	45.51	0	0	0	0	0	0	0	0	0	0	0;
	110	91.47	8.92640523	60	-20	1.051233	100	1	200	60.98	0	0	0	0	0	0	0	0	0	0	0;
	114	42.35	6.05510822	40	-10	1.030832	100	1	100	28.23	0	0	0	0	0	0	0	0	0	0	0;
	115	22.35	5.32828149	30	-10	1.019	100	1	100	14.9	0	0	0	0	0	0	0	0	0	0	0;
	121	36.03	16.7983713	30	-10	1.045359	100	1	100	24.02	0	0	0	0	0	0	0	0	0	0	0;
	132	6.52	0.0765929971	10	-10	0.996117	100	1	100	4.35	0	0	0	0	0	0	0	0	0	0	0;
	133	36.77	13.1644421	30	-10	1.042317	100	1	100	24.51	0	0	0	0	0	0	0	0	0	0	0;
	134	45.54	5.69283926	40	-10	1.044129	100	1	100	30.36	0	0	0	0	0	0	0	0	0	0	0;
	135	42.35	6.05510822	40	-10	1.030832	100	1	100	28.23	0	0	0	0	0	0	0	0	0	0	0;
	136	50.83	3.30446704	60	-20	1.049674	100	1	200	33.89	0	0	0	0	0	0	0	0	0	0	0;
	144	17.8	7.42271135	30	-10	1.034631	100	1	100	11.87	0	0	0	0	0	0	0	0	0	0	0;
	145	612.01	227.464983	520	-120	1.040587	100	1	1300	400	0	0	0	0	0	0	0	0	0	0	0;
	146	612.04	260.134022	520	-120	1.044313	100	1	1300	400	0	0	0	0	0	0	0	0	0	0	0;
	147	612.04	260.134022	520	-120	1.044313	100	1	1300	400	0	0	0	0	0	0	0	0	0	0	0;
	151	204	30.4524604	150	-60	1.023215	100	1	500	100	0	0	0	0	0	0	0	0	0	0	0;
	153	36.13	4.60239391	30	-10	1.027348	100	1	100	24.09	0	0	0	0	0	0	0	0	0	0	0;
	154	766.83	7.6716415	520	-120	1.05252	100	1	1600	500	0	0	0	0	0	0	0	0	0	0	0;
	156	49.34	9.15153588	40	-10	1.034597	100	1	100	32.89	0	0	0	0	0	0	0	0	0	0	0;
	161	49.34	9.15153588	40	-10	1.034597	100	1	100	32.89	0	0	0	0	0	0	0	0	0	0	0;
	162	49.34	9.15153588	40	-10	1.034597	100	1	100	32.89	0	0	0	0	0	0	0	0	0	0	0;
	165	42.35	6.05510822	40	-10	1.030832	100	1	100	28.23	0	0	0	0	0	0	0	0	0	0	0;
	179	95.02	8.24081763	60	-20	1.023144	100	1	200	63.35	0	0	0	0	0	0	0	0	0	0	0;
	182	34.96	12.8873715	30	-10	1.054937	100	1	100	23.31	0	0	0	0	0	0	0	0	0	0	0;
	196	81.07	20.2440325	60	-20	1.021915	100	1	200	54.05	0	0	0	0	0	0	0	0	0	0	0;
	197	245.73	1.48717231	160	-40	1.005341	100	1	500	100	0	0	0	0	0	0	0	0	0	0	0;
	207	27.95	3.74661138	30	-10	1.016461	100	1	100	18.63	0	0	0	0	0	0	0	0	0	0	0;
	220	97.72	39.4502296	60	-20	1.055654	100	1	200	65.15	0	0	0	0	0	0	0	0	0	0	0;
	221	97.72	39.4502296	60	-20	1.055654	100	1	200	65.15	0	0	0	0	0	0	0	0	0	0	0;
	222	97.66	41.9459541	60	-20	1.051105	100	1	200	65.11	0	0	0	0	0	0	0	0	0	0	0;
	223	97.72	39.4502296	60	-20	1.055654	100	1	200	65.15	0	0	0	0	0	0	0	0	0	0	0;
	224	97.66	41.9459541	60	-20	1.051105	100	1	200	65.11	0	0	0	0	0	0	0	0	0	0	0;
	225	97.66	41.9459541	60	-20	1.051105	100	1	200	65.11	0	0	0	0	0	0	0	0	0	0	0;
	229	21.03	9.79710997	30	-10	1.034441	100	1	100	14.02	0	0	0	0	0	0	0	0	0	0	0;
	241	601.87	164.082406	520	-120	1.037622	100	1	1300	400	0	0	0	0	0	0	0	0	0	0	0;
	243	32.43	18.2139835	30	-10	1.053647	100	1	100	21.62	0	0	0	0	0	0	0	0	0	0	0;
	248	26.38	8.86780799	30	-10	1.026279	100	1	100	17.59	0	0	0	0	0	0	0	0	0	0	0;
	250	192.55	1.90781355	160	-40	1.012099	100	1	400	100	0	0	0	0	0	0	0	0	0	0	0;
	258	8.2	-2.56083378	10	-10	0.955439	100	1	100	5.47	0	0	0	0	0	0	0	0	0	0	0;
	259	38.51	6.71920015	30	-10	1.03425	100	1	100	25.67	0	0	0	0	0	0	0	0	0	0	0;
	266	28.48	6.82463594	30	-10	1.005915	100	1	100	18.99	0	0	0	0	0	0	0	0	0	0	0;
	270	18.4	-1.00452689	20	-20	1.003342	100	1	100	12.27	0	0	0	0	0	0	0	0	0	0	0;
	271	626.63	192.533641	520	-120	1.053159	100	1	1300	400	0	0	0	0	0	0	0	0	0	0	0;
	273	626.63	186.845992	520	-120	1.051456	100	1	1300	400	0	0	0	0	0	0	0	0	0	0	0;
	274	626.64	185.312947	520	-120	1.051088	100	1	1300	400	0	0	0	0	0	0	0	0	0	0	0;
	275	626.64	185.312947	520	-120	1.051088	100	1	1300	400	0	0	0	0	0	0	0	0	0	0	0;
	276	626.64	183.793469	520	-120	1.050379	100	1	1300	400	0	0	0	0	0	0	0	0	0	0	0;
	278	627	32.711013	320	-190	0.960771	100	1	1300	400	0	0	0	0	0	0	0	0	0	0	0;
	283	8	0.741053475	10	-10	1.000621	100	1	100	5.33	0	0	0	0	0	0	0	0	0	0	0;
	289	36.9	12.2452176	30	-10	1.040289	100	1	100	24.6	0	0	0	0	0	0	0	0	0	0	0;
	294	92.8	3.24030204	50	-50	0.999187	100	1	200	61.87	0	0	0	0	0	0	0	0	0	0	0;
	296	21	1.31985498	10	-10	0.989117	100	1	100	14	0	0	0	0	0	0	0	0	0	0	0;
	299	158.9	35.4142151	100	-30	0.993468	100	1	400	100	0	0	0	0	0	0	0	0	0	0	0;
	304	39.98	8.67445627	30	-10	1.037997	100	1	100	26.65	0	0	0	0	0	0	0	0	0	0	0;
	305	27.73	1.88215903	30	-10	1.030407	100	1	100	18.49	0	0	0	0	0	0	0	0	0	0	0;
	306	27.73	1.88215903	30	-10	1.030407	100	1	100	18.49	0	0	0	0	0	0	0	0	0	0	0;
	307	17.66	6.93746767	30	-10	1.049321	100	1	100	11.77	0	0	0	0	0	0	0	0	0	0	0;
	308	17.66	6.93746767	30	-10	1.049321	100	1	100	11.77	0	0	0	0	0	0	0	0	0	0	0;
	309	32.08	3.65650625	30	-10	1.05655	100	1	100	21.39	0	0	0	0	0	0	0	0	0	0	0;
	310	32.08	3.65650625	30	-10	1.05655	100	1	100	21.39	0	0	0	0	0	0	0	0	0	0	0;
	311	32.08	3.65650625	30	-10	1.05655	100	1	100	21.39	0	0	0	0	0	0	0	0	0	0	0;
	312	32.08	3.65650625	30	-10	1.05655	100	1	100	21.39	0	0	0	0	0	0	0	0	0	0	0;
	315	2.06	0.622847963	10	-10	1.021202	100	1	100	1.37	0	0	0	0	0	0	0	0	0	0	0;
	323	419.13	106.129615	520	-120	1.016993	100	1	900	200	0	0	0	0	0	0	0	0	0	0	0;
	324	5	1.88811508	10	-10	1.024179	100	1	100	3.33	0	0	0	0	0	0	0	0	0	0	0;
	325	4.8	-0.0771612698	10	-10	0.996355	100	1	100	3.2	0	0	0	0	0	0	0	0	0	0	0;
	328	54.54	27.6998693	40	-10	1.023168	100	1	200	36.36	0	0	0	0	0	0	0	0	0	0	0;
	331	27.62	3.87732425	30	-20	1.006233	100	1	100	18.41	0	0	0	0	0	0	0	0	0	0	0;
	332	2	-0.00140186399	10	-10	0.996766	100	1	100	1.33	0	0	0	0	0	0	0	0	0	0	0;
	336	16.08	0.039128507	10	-10	1.010862	100	1	100	10.72	0	0	0	0	0	0	0	0	0	0	0;
	338	16.08	-0.172734212	10	-10	1.00038	100	1	100	10.72	0	0	0	0	0	0	0	0	0	0	0;
	345	333.1	57.0548422	210	-50	1.030395	100	1	700	200	0	0	0	0	0	0	0	0	0	0	0;
	346	333.1	57.0548422	210	-50	1.030395	100	1	700	200	0	0	0	0	0	0	0	0	0	0	0;
	351	167.59	38.8056255	210	-50	1.024484	100	1	400	100	0	0	0	0	0	0	0	0	0	0	0;
	354	36.42	7.47828313	30	-10	1.029166	100	1	100	24.28	0	0	0	0	0	0	0	0	0	0	0;
	358	165.24	106.904881	210	-50	1.050725	100	1	400	100	0	0	0	0	0	0	0	0	0	0	0;
	360	84.12	16.9193797	60	-20	1.028641	100	1	200	56.08	0	0	0	0	0	0	0	0	0	0	0;
	361	84.12	16.9193797	60	-20	1.028641	100	1	200	56.08	0	0	0	0	0	0	0	0	0	0	0;
	362	84.12	16.9193797	60	-20	1.028641	100	1	200	56.08	0	0	0	0	0	0	0	0	0	0	0;
	363	84.12	16.9193797	60	-20	1.028641	100	1	200	56.08	0	0	0	0	0	0	0	0	0	0	0;
	364	5.25	0.211495311	10	-10	1.00564	100	1	100	3.5	0	0	0	0	0	0	0	0	0	0	0;
	365	95.2	35.9325724	110	-30	0.997585	100	1	200	63.47	0	0	0	0	0	0	0	0	0	0	0;
	368	84.12	16.9193797	60	-20	1.028641	100	1	200	56.08	0	0	0	0	0	0	0	0	0	0	0;
	369	84.12	16.9193797	60	-20	1.028641	100	1	200	56.08	0	0	0	0	0	0	0	0	0	0	0;
	382	102.03	9.45127322	60	-20	0.990596	100	1	300	68.02	0	0	0	0	0	0	0	0	0	0	0;
	383	102.24	29.2092739	60	-20	1.012482	100	1	300	68.16	0	0	0	0	0	0	0	0	0	0	0;
	392	1.03	0.0747676037	10	-10	1.030636	100	1	100	0.69	0	0	0	0	0	0	0	0	0	0	0;
	394	37.9	9.33229968	30	-10	1.0326	100	1	100	25.27	0	0	0	0	0	0	0	0	0	0	0;
	395	37.23	4.40304779	30	-10	1.028283	100	1	100	24.82	0	0	0	0	0	0	0	0	0	0	0;
	396	85.28	19.5458567	60	-20	1.029542	100	1	200	56.85	0	0	0	0	0	0	0	0	0	0	0;
	400	94.5	9.15114785	50	-40	0.979015	100	1	200	63	0	0	0	0	0	0	0	0	0	0	0;
	405	33.64	6.77346189	30	-10	1.00773	100	1	100	22.43	0	0	0	0	0	0	0	0	0	0	0;
	406	33.64	6.77346189	30	-10	1.00773	100	1	100	22.43	0	0	0	0	0	0	0	0	0	0	0;
	408	34.92	9.61157562	30	-10	1.043492	100	1	100	23.28	0	0	0	0	0	0	0	0	0	0	0;
	423	0.99	-0.0532335986	10	-10	1.015919	100	1	100	0.66	0	0	0	0	0	0	0	0	0	0	0;
	432	4.5	0.465904538	10	-10	1.016602	100	1	100	3	0	0	0	0	0	0	0	0	0	0	0;
	433	30.04	8.00300848	30	-10	1.011489	100	1	100	20.03	0	0	0	0	0	0	0	0	0	0	0;
	438	18.13	3.5456838	30	-10	1.016716	100	1	100	12.09	0	0	0	0	0	0	0	0	0	0	0;
	442	31.35	11.1805054	30	-10	1.043357	100	1	100	20.9	0	0	0	0	0	0	0	0	0	0	0;
	448	25.22	6.24638104	20	-10	1.038795	100	1	100	16.81	0	0	0	0	0	0	0	0	0	0	0;
	454	8.35	-1.92803046	10	-10	0.973833	100	1	100	5.57	0	0	0	0	0	0	0	0	0	0	0;
	458	31.28	-0.928232436	30	-10	1.009892	100	1	100	20.85	0	0	0	0	0	0	0	0	0	0	0;
	463	-19.98	295.423005	100000	-100000	1.126642	100	1	100	-26.64	0	0	0	0	0	0	0	0	0	0	0;
	470	74.8	36.0786898	60	-20	1.046905	100	1	200	49.87	0	0	0	0	0	0	0	0	0	0	0;
	476	214.05	80.1870948	210	-50	1.029484	100	1	500	100	0	0	0	0	0	0	0	0	0	0	0;
	477	38.02	10.8213477	30	-10	1.043087	100	1	100	25.35	0	0	0	0	0	0	0	0	0	0	0;
	480	89.2	18.2439606	60	-20	1.033425	100	1	200	59.47	0	0	0	0	0	0	0	0	0	0	0;
	481	89.2	18.2439606	60	-20	1.033425	100	1	200	59.47	0	0	0	0	0	0	0	0	0	0	0;
	482	89.2	18.2439606	60	-20	1.033425	100	1	200	59.47	0	0	0	0	0	0	0	0	0	0	0;
	483	89.2	18.2439606	60	-20	1.033425	100	1	200	59.47	0	0	0	0	0	0	0	0	0	0	0;
	485	325.03	138.971831	210	-50	1.059619	100	1	700	200	0	0	0	0	0	0	0	0	0	0	0;
	492	273.28	113.299545	210	-50	1.041985	100	1	600	100	0	0	0	0	0	0	0	0	0	0	0;
	496	64.28	30.2493192	60	-20	1.00876	100	1	200	42.85	0	0	0	0	0	0	0	0	0	0	0;
	508	857.64	269.117045	520	-120	1.044776	100	1	1800	500	0	0	0	0	0	0	0	0	0	0	0;
	509	857.69	275.678804	520	-120	1.044388	100	1	1800	500	0	0	0	0	0	0	0	0	0	0	0;
	510	857.66	264.030834	520	-120	1.044096	100	1	1800	500	0	0	0	0	0	0	0	0	0	0	0;
	514	857.64	266.531586	520	-120	1.044511	100	1	1800	500	0	0	0	0	0	0	0	0	0	0	0;
	516	32.57	7.09964974	30	-10	1.041748	100	1	100	21.71	0	0	0	0	0	0	0	0	0	0	0;
	528	23.66	2.40464043	30	-10	1.020703	100	1	100	15.77	0	0	0	0	0	0	0	0	0	0	0;
	531	38.79	5.82817503	30	-10	1.035838	100	1	100	25.86	0	0	0	0	0	0	0	0	0	0	0;
	532	258.95	66.4218401	210	-50	1.036699	100	1	600	100	0	0	0	0	0	0	0	0	0	0	0;
	533	164.92	6.1987638	160	-40	1.016377	100	1	400	100	0	0	0	0	0	0	0	0	0	0	0;
	539	152	33.4595072	90	-40	0.993492	100	1	400	100	0	0	0	0	0	0	0	0	0	0	0;
	552	30.6	-1.44190761	20	-20	0.99834	100	1	100	20.4	0	0	0	0	0	0	0	0	0	0	0;
	559	51.5	-7.53512605	30	-30	0.954584	100	1	200	34.33	0	0	0	0	0	0	0	0	0	0	0;
	564	21.77	6.32090645	30	-10	1.024499	100	1	100	14.51	0	0	0	0	0	0	0	0	0	0	0;
	572	7	0.89312816	10	-10	1.004314	100	1	100	4.67	0	0	0	0	0	0	0	0	0	0	0;
	575	18.09	1.62400731	30	-10	1.016739	100	1	100	12.06	0	0	0	0	0	0	0	0	0	0	0;
	576	18.09	1.62400731	30	-10	1.016739	100	1	100	12.06	0	0	0	0	0	0	0	0	0	0	0;
	577	18.09	1.62400731	30	-10	1.016739	100	1	100	12.06	0	0	0	0	0	0	0	0	0	0	0;
	581	18.09	1.62400731	30	-10	1.016739	100	1	100	12.06	0	0	0	0	0	0	0	0	0	0	0;
	585	72.61	28.5122584	60	-20	1.041629	100	1	200	48.41	0	0	0	0	0	0	0	0	0	0	0;
	589	13.38	0.701795895	10	-10	1.00755	100	1	100	8.92	0	0	0	0	0	0	0	0	0	0	0;
	610	31.95	15.2381724	30	-10	1.019723	100	1	100	21.3	0	0	0	0	0	0	0	0	0	0	0;
	614	34.81	16.0168982	40	-10	1.031902	100	1	100	23.21	0	0	0	0	0	0	0	0	0	0	0;
	615	34.81	16.0168982	40	-10	1.031902	100	1	100	23.21	0	0	0	0	0	0	0	0	0	0	0;
	619	42.5	5.51690114	40	-10	1.031502	100	1	100	28.33	0	0	0	0	0	0	0	0	0	0	0;
	621	5.8	-0.758887958	10	-10	1.003942	100	1	100	3.87	0	0	0	0	0	0	0	0	0	0	0;
	623	36.03	16.7983713	30	-10	1.045359	100	1	100	24.02	0	0	0	0	0	0	0	0	0	0	0;
	626	43.29	18.6646472	60	-20	1.035771	100	1	100	28.86	0	0	0	0	0	0	0	0	0	0	0;
	635	0.13	-0.102953335	10	-10	1.023511	100	1	100	0.09	0	0	0	0	0	0	0	0	0	0	0;
	637	25.22	6.77510676	30	-10	1.04616	100	1	100	16.81	0	0	0	0	0	0	0	0	0	0	0;
	646	333.1	57.0548422	210	-50	1.030395	100	1	700	200	0	0	0	0	0	0	0	0	0	0	0;
	648	322.05	15.0994366	210	-50	1.007781	100	1	700	200	0	0	0	0	0	0	0	0	0	0	0;
	649	333.1	57.0548422	210	-50	1.030395	100	1	700	200	0	0	0	0	0	0	0	0	0	0	0;
	651	188.27	-21.9699698	210	-50	1.028351	100	1	400	100	0	0	0	0	0	0	0	0	0	0	0;
	652	188.27	-21.9699698	210	-50	1.028351	100	1	400	100	0	0	0	0	0	0	0	0	0	0	0;
	654	92.4	2.7200275	60	-20	1.014507	100	1	200	61.6	0	0	0	0	0	0	0	0	0	0	0;
	660	33.21	5.47364271	30	-10	1.022689	100	1	100	22.14	0	0	0	0	0	0	0	0	0	0	0;
	666	31.3	-0.82078756	30	-10	1.018739	100	1	100	20.87	0	0	0	0	0	0	0	0	0	0	0;
	671	25.2	-0.309203135	20	-10	0.999061	100	1	100	16.8	0	0	0	0	0	0	0	0	0	0	0;
	676	274.65	30.6579571	160	-40	1.018066	100	1	600	100	0	0	0	0	0	0	0	0	0	0	0;
	681	84.68	6.20923899	60	-20	1.00657	100	1	200	56.45	0	0	0	0	0	0	0	0	0	0	0;
	684	68.89	19.0470689	60	-20	1.035618	100	1	200	45.93	0	0	0	0	0	0	0	0	0	0	0;
	693	209.96	78.6748644	160	-40	1.038999	100	1	500	100	0	0	0	0	0	0	0	0	0	0	0;
	695	8.4	-0.781312939	10	-10	1.010516	100	1	100	5.6	0	0	0	0	0	0	0	0	0	0	0;
	698	26.72	4.52115075	20	-10	1.018527	100	1	100	17.81	0	0	0	0	0	0	0	0	0	0	0;
	709	626.68	231.592904	520	-120	1.051727	100	1	1300	400	0	0	0	0	0	0	0	0	0	0	0;
	715	23.9	3.5418762	30	-10	1.007844	100	1	100	15.93	0	0	0	0	0	0	0	0	0	0	0;
	717	23.12	5.57787142	10	0	1.027572	100	1	100	15.41	0	0	0	0	0	0	0	0	0	0	0;
	721	74.35	10.2164699	60	-20	0.992442	100	1	200	49.57	0	0	0	0	0	0	0	0	0	0	0;
	724	35.5	10.6221763	30	-10	1.045213	100	1	100	23.67	0	0	0	0	0	0	0	0	0	0	0;
	730	98.46	12.344162	60	-20	1.01458	100	1	200	65.64	0	0	0	0	0	0	0	0	0	0	0;
	731	98.46	12.344162	60	-20	1.01458	100	1	200	65.64	0	0	0	0	0	0	0	0	0	0	0;
	732	98.46	12.344162	60	-20	1.01458	100	1	200	65.64	0	0	0	0	0	0	0	0	0	0	0;
	734	98.46	12.344162	60	-20	1.01458	100	1	200	65.64	0	0	0	0	0	0	0	0	0	0	0;
	746	16	0.20625162	10	-10	0.994194	100	1	100	10.67	0	0	0	0	0	0	0	0	0	0	0;
	749	22.58	7.41685259	30	-10	1.009791	100	1	100	15.05	0	0	0	0	0	0	0	0	0	0	0;
	750	22.58	7.41685259	30	-10	1.009791	100	1	100	15.05	0	0	0	0	0	0	0	0	0	0	0;
	751	22.58	7.41685259	30	-10	1.009791	100	1	100	15.05	0	0	0	0	0	0	0	0	0	0	0;
	753	20.64	7.23104624	30	-10	1.018866	100	1	100	13.76	0	0	0	0	0	0	0	0	0	0	0;
	754	64.65	13.0998896	60	-20	1.009683	100	1	200	43.1	0	0	0	0	0	0	0	0	0	0	0;
	765	78.37	30.3072058	60	-20	1.032985	100	1	200	52.25	0	0	0	0	0	0	0	0	0	0	0;
...
];

%% branch data
%	fbus	tbus	r	x	b	rateA	rateB	rateC	ratio	angle	status	angmin	angmax	Pf	Qf	Pt	Qt
mpc.branch = [
	7519	4482	0.0006	0.00616	0	0	0	0	0	0	1	-360	360	-48.2986	20.7870	48.3138	-20.6303;
	7519	11823	0.0005	0.0074	0	0	0	0	0	0	1	-360	360	48.2986	-1.4349	-48.2878	1.5939;
	3073	4516	0.00107	0.00626	0	0	0	0	0	0	1	-360	360	-182.3984	-2.7037	182.7408	4.7072;
	3073	4706	0.000841	0.0055	0	0	0	0	0	0	1	-360	360	182.3984	4.0865	-182.1291	-2.3258;
	5157	1032	0.00143	0.01563	0	0	0	0	0	0	1	-360	360	861.5302	7.8075	-851.9864	96.5073;
	5157	6653	0.00146	0.01692	0	0	0	0	0	0	1	-360	360	-861.5302	39.6953	871.2942	73.4594;
	628	7896	7e-05	0.00057	0	0	0	0	0	0	1	-360	360	274.7316	98.1311	-274.6790	-97.7029;
	628	6592	6e-05	0.00056	0	0	0	0	0	0	1	-360	360	-274.7316	-96.7261	274.7765	97.1454;
	11792	10888	0.003349	0.01656	0	0	0	0	0	0	1	-360	360	2.7956	-4.3511	-2.7947	4.3554;
	11792	4609	0.003409	0.016211	0	0	0	0	0	0	1	-360	360	-2.7956	7.2303	2.7975	-7.2209;
	6573	10888	0.003479	0.01586	0	0	0	0	0	0	1	-360	360	2.8145	-4.0984	-2.8137	4.1022;
	6573	4609	0.003099	0.017969	0	0	0	0	0	0	1	-360	360	-2.8145	6.8952	2.8162	-6.8856;
	782	13300	0.00127	0.01842	0	0	0	0	0	0	1	-360	360	-539.6116	87.5219	543.4454	-31.9163;
	782	1186	0.00126	0.01847	0	0	0	0	0	0	1	-360	360	539.6116	-40.5985	-535.8845	95.2334;
	11715	924	0.0013	0.01808	0	0	0	0	0	0	1	-360	360	-622.6914	92.6386	627.9425	-19.6082;
	11715	12182	0.00131	0.01765	0	0	0	0	0	0	1	-360	360	622.6914	-44.8159	-617.4877	114.9269;
	10257	2582	0.00065	0.01311	0	0	0	0	0	0	1	-360	360	459.0661	707.8477	-455.1818	-629.5036;
	10257	9363	0.00067	0.00974	0	0	0	0	0	0	1	-360	360	-459.0661	-118.9556	460.3312	137.3458;
	7595	11501	0.00236	0.01418	0	0	0	0	0	0	1	-360	360	164.5645	9.5002	-163.9610	-5.8743;
	7595	11390	0.002169	0.015909	0	0	0	0	0	0	1	-360	360	-164.5645	-6.4824	165.1181	10.5433;
	6873	1806	0.00027	0.00254	0	0	0	0	0	0	1	-360	360	-41.3176	140.9936	41.3714	-140.4878;
	6873	11151	0.00027	0.00259	0	0	0	0	0	0	1	-360	360	41.3176	-131.5944	-41.2702	132.0489;
	11949	1806	0.00033	0.00302	0	0	0	0	0	0	1	-360	360	342.2997	-120.0223	-341.8947	123.7287;
	11949	1269	0.00029	0.00312	0	0	0	0	0	0	1	-360	360	-342.2997	130.1963	342.6625	-126.2931;
	2623	3359	0.000289	0.00137	0	0	0	0	0	0	1	-360	360	-22.5541	-92.1757	22.5775	92.2868;
	2623	11159	0.000219	0.00263	0	0	0	0	0	0	1	-360	360	22.5541	120.1729	-22.5246	-119.8187;
	3020	3359	0.000289	0.001341	0	0	0	0	0	0	1	-360	360	12.3947	-39.8115	-12.3902	39.8325;
	3020	12995	0.000229	0.00257	0	0	0	0	0	0	1	-360	360	-12.3947	68.4066	12.4047	-68.2949;
	9670	3359	0.000841	0.00689	0	0	0	0	0	0	1	-360	360	47.7253	-33.1054	-47.6998	33.3150;
	9670	2360	0.000979	0.00586	0	0	0	0	0	0	1	-360	360	-47.7253	34.2588	47.7558	-34.0764;
	8390	3359	0.00014	0.0012	0	0	0	0	0	0	1	-360	360	19.4129	91.8840	-19.4019	-91.7891;
	8390	11515	0.000211	0.001539	0	0	0	0	0	0	1	-360	360	-19.4129	-91.4826	19.4295	91.6033;
	12630	3359	0.000401	0.004901	0	0	0	0	0	0	1	-360	360	7.0913	39.7990	-7.0854	-39.7273;
	12630	11515	0.000219	0.00151	0	0	0	0	0	0	1	-360	360	-7.0913	-38.8163	7.0943	38.8373;
	3340	3359	0.000729	0.004539	0	0	0	0	0	0	1	-360	360	-90.4467	-12.9318	90.5016	13.2731;
	3340	3953	0.00062	0.00482	0	0	0	0	0	0	1	-360	360	90.4467	13.7756	-90.4000	-13.4123;
	7444	8848	0.00052	0.00407	0	0	0	0	0	0	1	-360	360	-39.6617	146.0774	39.7834	-145.1249;
	7444	5026	0.00034	0.00502	0	0	0	0	0	0	1	-360	360	39.6617	-134.7705	-39.5931	135.7826;
	11055	8848	0.00065	0.00698	0	0	0	0	0	0	1	-360	360	348.1807	153.4880	-347.2327	-143.3079;
	11055	13067	0.00059	0.00806	0	0	0	0	0	0	1	-360	360	-348.1807	-133.0970	349.0064	144.3777;
	9857	13125	0.00063	0.00464	0	0	0	0	0	0	1	-360	360	-41.2067	15.4546	41.2192	-15.3629;
	9857	12598	0.000599	0.005099	0	0	0	0	0	0	1	-360	360	41.2067	-14.2000	-41.1951	14.2988;
	7256	7011	0.00064	0.00307	0	0	0	0	0	0	1	-360	360	-124.5834	53.7697	124.6943	-53.2378;
	7256	11232	0.000659	0.003	0	0	0	0	0	0	1	-360	360	124.5834	-52.7176	-124.4699	53.2342;
	12732	9895	0.00053	0.00528	0	0	0	0	0	0	1	-360	360	-77.1165	-117.2585	77.2178	118.2684;
	12732	4416	0.00056	0.0053	0	0	0	0	0	0	1	-360	360	77.1165	130.9542	-76.9909	-129.7655;
	4494	7011	0.0018	0.007919	0	0	0	0	0	0	1	-360	360	-99.4853	42.4049	99.6832	-41.5345;
	4494	10481	0.001651	0.00862	0	0	0	0	0	0	1	-360	360	99.4853	-39.5850	-99.3075	40.5137;
	7913	9895	0.00045	0.00545	0	0	0	0	0	0	1	-360	360	287.0413	91.6461	-286.6541	-86.9574;
	7913	1269	0.00052	0.00476	0	0	0	0	0	0	1	-360	360	-287.0413	-79.4149	287.4783	83.4157;
	3258	10043	0.01286	0.037421	0	0	0	0	0	0	1	-360	360	-0.7354	3.0215	0.7367	-3.0178;
	3258	8238	0.032397	0.123	0	0	0	0	0	0	1	-360	360	0.7354	-2.2903	-0.7335	2.2976;
	697	10043	0.032851	0.069727	0	0	0	0	0	0	1	-360	360	-6.4400	3.6734	6.4586	-3.6340;
	697	11841	0.059942	0.112802	0	0	0	0	0	0	1	-360	360	6.4400	-2.7290	-6.4099	2.7856;
	11629	10942	0.00011	0.00109	0	0	0	0	0	0	1	-360	360	-61.4699	-15.8343	61.4740	15.8744;
	11629	13171	0.00011	0.00107	0	0	0	0	0	0	1	-360	360	61.4699	18.8354	-61.4658	-18.7950;
	9089	11260	0.000461	0.00395	0	0	0	0	0	0	1	-360	360	218.2152	-105.8332	-217.9564	108.0507;
	9089	7609	0.000599	0.003789	0	0	0	0	0	0	1	-360	360	-218.2152	106.6713	218.5525	-104.5377;
	13119	3581	0.00173	0.01542	0	0	0	0	0	0	1	-360	360	-30.5579	155.2860	30.9095	-152.1520;
	13119	6381	0.00166	0.02083	0	0	0	0	0	0	1	-360	360	30.5579	-106.1986	-30.3934	108.2626;
	5075	13106	0.006314	0.018488	0	0	0	0	0	0	1	-360	360	9.6248	-2.3629	-9.6188	2.3805;
	5075	9503	0.015727	0.037669	0	0	0	0	0	0	1	-360	360	-9.6248	2.6416	9.6399	-2.6052;
	11048	10312	0.00374	0.02095	0	0	0	0	0	0	1	-360	360	282.2489	-26.2518	-279.5388	41.4329;
	11048	3185	0.00511	0.019461	0	0	0	0	0	0	1	-360	360	-282.2489	29.6893	285.9607	-15.5535;
	1538	4109	0.011281	0.050771	0	0	0	0	0	0	1	-360	360	142.6394	-54.5419	-140.0788	66.0659;
	1538	3721	0.0115	0.049719	0	0	0	0	0	0	1	-360	360	-142.6394	63.5012	145.3680	-51.7042;
	5803	4109	0.011719	0.048659	0	0	0	0	0	0	1	-360	360	147.1452	-59.3641	-144.2734	71.2882;
	5803	3721	0.01193	0.047599	0	0	0	0	0	0	1	-360	360	-147.1452	68.6616	150.2069	-56.4458;
	189	4268	0.00064	0.00715	0	0	0	0	0	0	1	-360	360	-238.2189	59.9966	238.5738	-56.0313;
	189	11488	0.00089	0.00712	0	0	0	0	0	0	1	-360	360	238.2189	-36.7205	-237.7437	40.5218;
	7384	1009	0.00048	0.00555	0	0	0	0	0	0	1	-360	360	-28.2988	-0.9006	28.3023	0.9410;
	7384	11547	0.00047	0.00566	0	0	0	0	0	0	1	-360	360	28.2988	14.1253	-28.2946	-14.0739;
	11070	1009	0.00046	0.00524	0	0	0	0	0	0	1	-360	360	-30.6698	-1.1159	30.6737	1.1608;
	11070	11547	0.00052	0.00514	0	0	0	0	0	0	1	-360	360	30.6698	14.7697	-30.6643	-14.7156;
	2061	6603	0.00438	0.010686	0	0	0	0	0	0	1	-360	360	-41.1018	-7.6674	41.1819	7.8628;
	2061	9733	0.031347	0.062653	0	0	0	0	0	0	1	-360	360	41.1018	8.0211	-40.5268	-6.8718;
	9502	7241	0.00029	0.00298	0	0	0	0	0	0	1	-360	360	-513.7257	50.0838	514.4406	-42.7375;
	9502	8865	0.0003	0.00291	0	0	0	0	0	0	1	-360	360	513.7257	-41.2218	-512.9884	48.3737;
	12336	13321	0.00155	0.01529	0	0	0	0	0	0	1	-360	360	-112.8698	178.9304	113.4391	-173.3144;
	12336	494	0.00148	0.0152	0	0	0	0	0	0	1	-360	360	112.8698	-127.3629	-112.5180	130.9755;
	13540	11971	0.000169	0.00096	0	0	0	0	0	0	1	-360	360	-98.7566	-47.4591	98.7778	47.5795;
	13540	330	0.000182	0.000942	0	0	0	0	0	0	1	-360	360	98.7566	47.9856	-98.7337	-47.8669;
	8250	622	0.00016	0.00184	0	0	0	0	0	0	1	-360	360	-881.0351	-271.5546	882.3473	286.6455;
	8250	8646	0.00022	0.00287	0	0	0	0	0	0	1	-360	360	881.0351	278.3219	-879.2228	-254.6802;
	5656	9506	0.00015	0.00187	0	0	0	0	0	0	1	-360	360	-896.3273	-368.5756	897.6702	385.3167;
	5656	7003	0.00022	0.00266	0	0	0	0	0	0	1	-360	360	896.3273	375.2797	-894.3473	-351.3397;
	8767	13151	0.00138	0.0174	0	0	0	0	0	0	1	-360	360	-36.6143	39.5531	36.6476	-39.1333;
	8767	256	0.00272	0.0288	0	0	0	0	0	0	1	-360	360	36.6143	39.6992	-36.5484	-39.0015;
	11952	7565	0.00065	0.01024	0	0	0	0	0	0	1	-360	360	897.7830	109.1090	-892.8581	-31.5233;
	11952	8750	0.00073	0.01004	0	0	0	0	0	0	1	-360	360	-897.7830	-83.2978	903.2804	158.9063;
	13220	7565	0.00075	0.00983	0	0	0	0	0	0	1	-360	360	936.2448	105.4323	-930.0819	-24.6573;
	13220	8750	0.00076	0.00963	0	0	0	0	0	0	1	-360	360	-936.2448	-77.1835	942.4535	155.8552;
	10465	10831	0.00042	0.02666	0	0	0	0	0	0	1	-360	360	0.0000	0.0000	0.0000	0.0000;
	8079	10358	0.00029	0.0026	0	0	0	0	0	0	1	-360	360	552.4000	51.4329	-551.5685	-43.9787;
	8079	8404	0.00022	0.00303	0	0	0	0	0	0	1	-360	360	-552.4000	-40.2357	553.0286	48.8939;
	7197	5524	0.001	0.006159	0	0	0	0	0	0	1	-360	360	192.2771	29.5042	-191.9199	-27.3044;
	7197	11931	0.00113	0.00657	0	0	0	0	0	0	1	-360	360	-192.2771	-28.0528	192.6798	30.3942;
	1721	12153	0.0013	0.01277	0	0	0	0	0	0	1	-360	360	236.0475	101.1408	-235.4010	-94.7903;
	1721	10744	0.00163	0.01808	0	0	0	0	0	0	1	-360	360	-236.0475	-54.4876	236.7689	62.4889;
	8400	850	0.00047	0.00406	0	0	0	0	0	0	1	-360	360	233.6629	90.2128	-233.4451	-88.3311;
	8400	8575	0.00235	0.02343	0	0	0	0	0	0	1	-360	360	-233.6629	-46.5180	234.6483	56.3431;
	9020	2201	0.00036	0.00445	0	0	0	0	0	0	1	-360	360	458.4713	201.4609	-457.6655	-191.4992;
	9020	2350	0.00017	0.0025	0	0	0	0	0	0	1	-360	360	-458.4713	-190.9528	458.8457	196.4573;
	6435	2201	0.00036	0.00436	0	0	0	0	0	0	1	-360	360	128.8895	190.3808	-128.7191	-188.3175;
	6435	3448	0.00017	0.00255	0	0	0	0	0	0	1	-360	360	-128.8895	-179.6919	128.9639	180.8084;
	3223	4642	0.00096	0.00995	0	0	0	0	0	0	1	-360	360	275.5401	18.7841	-274.9011	-12.1613;
	3223	9919	0.00152	0.01949	0	0	0	0	0	0	1	-360	360	-275.5401	15.4565	276.5503	-2.5031;
	7755	4642	0.00094	0.01014	0	0	0	0	0	0	1	-360	360	270.4683	19.2490	-269.8651	-12.7429;
	7755	9919	0.00149	0.01986	0	0	0	0	0	0	1	-360	360	-270.4683	14.2686	271.4221	-1.5549;
	4129	4642	0.00107	0.01243	0	0	0	0	0	0	1	-360	360	145.1481	38.3058	-144.9384	-35.8699;
	4129	3715	0.00102	0.01034	0	0	0	0	0	0	1	-360	360	-145.1481	-9.8688	145.3359	11.7720;
	5471	7106	0.0047	0.02061	0	0	0	0	0	0	1	-360	360	-118.9132	-56.4183	119.6672	59.7249;
	5471	5434	0.00739	0.040531	0	0	0	0	0	0	1	-360	360	118.9132	61.4608	-117.6868	-54.7349;
	8834	12770	0.00049	0.00611	0	0	0	0	0	0	1	-360	360	-231.9565	-126.5837	232.2064	129.7000;
	8834	10744	0.00035	0.00431	0	0	0	0	0	0	1	-360	360	231.9565	145.7918	-231.7646	-143.4288;
	7831	1467	0.00261	0.01344	0	0	0	0	0	0	1	-360	360	-25.1241	-52.9942	25.2089	53.4311;
	7831	5173	0.003521	0.019591	0	0	0	0	0	0	1	-360	360	25.1241	56.1258	-24.9982	-55.4256;
	10033	5005	0.0025	0.01419	0	0	0	0	0	0	1	-360	360	-11.7480	-79.2995	11.9009	80.1677;
	10033	7387	0.00287	0.0237	0	0	0	0	0	0	1	-360	360	11.7480	83.1542	-11.5553	-81.5628;
	9789	9848	0.00088	0.00956	0	0	0	0	0	0	1	-360	360	584.0775	-179.9943	-581.2114	211.1312;
	9789	430	0.00095	0.00877	0	0	0	0	0	0	1	-360	360	-584.0775	204.1136	587.2484	-174.8413;
	2916	1094	0.00332	0.020651	0	0	0	0	0	0	1	-360	360	-96.2673	18.4561	96.5696	-16.5761;
	2916	2869	0.003969	0.018781	0	0	0	0	0	0	1	-360	360	96.2673	-15.3005	-95.9100	16.9913;
	4142	3925	0.002849	0.014909	0	0	0	0	0	0	1	-360	360	0.3300	26.9134	-0.3082	-26.7991;
	4142	2245	0.00439	0.02451	0	0	0	0	0	0	1	-360	360	-0.3300	-24.2490	0.3574	24.4015;
	123	12854	0.0002	0.0018	0	0	0	0	0	0	1	-360	360	-720.4157	71.7791	721.4114	-62.8177;
	123	12369	0.00025	0.00261	0	0	0	0	0	0	1	-360	360	720.4157	-64.1777	-719.1736	77.1460;
	10806	12854	0.0002	0.00176	0	0	0	0	0	0	1	-360	360	-727.2607	73.2327	728.2757	-64.3010;
	10806	1112	0.00025	0.00255	0	0	0	0	0	0	1	-360	360	727.2607	-65.4946	-725.9946	78.4093;
	12593	9027	0.012488	0.047413	0	0	0	0	0	0	1	-360	360	-28.4414	-1.6100	28.5443	2.0009;
	12593	455	0.010479	0.027711	0	0	0	0	0	0	1	-360	360	28.4414	1.9151	-28.3549	-1.6864;
	3745	10922	0.00044	0.00428	0	0	0	0	0	0	1	-360	360	1056.9216	-93.9934	-1052.5179	136.8298;
	3745	1898	0.00036	0.00475	0	0	0	0	0	0	1	-360	360	-1056.9216	106.9755	1060.5330	-59.3249;
	6938	7640	0.00058	0.00534	0	0	0	0	0	0	1	-360	360	875.0575	-274.9353	-870.2713	319.0008;
	6938	4543	0.00054	0.00589	0	0	0	0	0	0	1	-360	360	-875.0575	288.7907	879.5549	-239.7353;
	4229	2024	0.00206	0.02057	0	0	0	0	0	0	1	-360	360	77.4989	35.1292	-77.3636	-33.7778;
	4229	9388	0.00077	0.00872	0	0	0	0	0	0	1	-360	360	-77.4989	4.4674	77.5410	-3.9906;
	5543	13575	0.00161	0.01963	0	0	0	0	0	0	1	-360	360	-381.9512	8.1501	384.0649	17.6223;
	5543	9388	0.00075	0.00888	0	0	0	0	0	0	1	-360	360	381.9512	25.3004	-380.9626	-13.5960;
	2764	10638	0.00016	0.00152	0	0	0	0	0	0	1	-360	360	-759.5609	3.7301	760.4026	4.2658;
	2764	10338	0.00019	0.00163	0	0	0	0	0	0	1	-360	360	759.5609	1.4905	-758.5615	7.0838;
	7963	10638	0.00015	0.0016	0	0	0	0	0	0	1	-360	360	-698.9162	-13.0854	699.5847	20.2153;
	7963	10338	0.00015	0.00183	0	0	0	0	0	0	1	-360	360	698.9162	17.9322	-698.2476	-9.7749;
	5383	4802	0.00121	0.01426	0	0	0	0	0	0	1	-360	360	-436.8686	-137.4862	439.1809	164.7362;
	5383	8035	0.00116	0.01456	0	0	0	0	0	0	1	-360	360	436.8686	201.0079	-434.4247	-170.3325;
	663	204	0.00068	0.00727	0	0	0	0	0	0	1	-360	360	943.1714	-36.0303	-937.7619	93.8643;
	663	6973	0.0007	0.00734	0	0	0	0	0	0	1	-360	360	-943.1714	61.4625	948.7555	-2.9091;
	11598	204	0.00076	0.00712	0	0	0	0	0	0	1	-360	360	960.7024	-49.1607	-954.4225	107.9936;
	11598	6973	0.0008	0.00719	0	0	0	0	0	0	1	-360	360	-960.7024	77.9753	967.3390	-18.3288;
	2983	2257	0.0002	0.0022	0	0	0	0	0	0	1	-360	360	-17.0403	-160.0552	17.0879	160.5789;
	2983	10869	0.0002	0.0022	0	0	0	0	0	0	1	-360	360	17.0403	166.8255	-16.9886	-166.2571;
	411	4997	0.000205	0.00215	0	0	0	0	0	0	1	-360	360	39.9497	-159.7970	-39.8986	160.3331;
	411	10869	0.000205	0.00215	0	0	0	0	0	0	1	-360	360	-39.9497	166.6953	40.0050	-166.1147;
	8649	12423	0.00053	0.00589	0	0	0	0	0	0	1	-360	360	-213.9861	-11.3892	214.2049	13.8203;
	8649	1165	0.00046	0.00675	0	0	0	0	0	0	1	-360	360	213.9861	28.2322	-213.7935	-25.4056;
	13485	12423	0.00054	0.00577	0	0	0	0	0	0	1	-360	360	-225.0297	-11.6842	225.2762	14.3181;
	13485	1165	0.00045	0.00625	0	0	0	0	0	0	1	-360	360	225.0297	28.5357	-224.8215	-25.6446;
	2363	2209	0.00275	0.02752	0	0	0	0	0	0	1	-360	360	-100.9285	-71.3051	101.2738	74.7604;
	2363	11249	0.00184	0.01515	0	0	0	0	0	0	1	-360	360	100.9285	126.2688	-100.5332	-123.0140;
	3314	10019	0.00438	0.02432	0	0	0	0	0	0	1	-360	360	-12.9151	-20.9436	12.9421	21.0939;
	3314	879	0.0043	0.01949	0	0	0	0	0	0	1	-360	360	12.9151	24.1768	-12.8821	-24.0274;
	12347	10227	0.00033	0.00269	0	0	0	0	0	0	1	-360	360	188.3622	92.0048	-188.2350	-90.9672;
	12347	2517	0.00243	0.01904	0	0	0	0	0	0	1	-360	360	-188.3622	-53.7124	189.1805	60.1240;
	1326	10227	0.00034	0.00263	0	0	0	0	0	0	1	-360	360	192.6286	92.8243	-192.4922	-91.7689;
	1326	2517	0.00248	0.01864	0	0	0	0	0	0	1	-360	360	-192.6286	-53.7914	193.4993	60.3356;
	9864	13169	0.00122	0.01249	0	0	0	0	0	0	1	-360	360	-443.0160	70.5085	445.2617	-47.5181;
	9864	5959	0.00106	0.01031	0	0	0	0	0	0	1	-360	360	443.0160	-32.8570	-441.1026	51.4676;
	4830	13169	0.00119	0.01273	0	0	0	0	0	0	1	-360	360	-442.7989	70.3122	444.9860	-46.9154;
	4830	5959	0.00108	0.01009	0	0	0	0	0	0	1	-360	360	442.7989	-32.5903	-440.8522	50.7769;
	12318	6464	0.001039	0.013711	0	0	0	0	0	0	1	-360	360	10.5645	-5.2162	-10.5632	5.2335;
	12318	7516	0.00114	0.011409	0	0	0	0	0	0	1	-360	360	-10.5645	9.5965	10.5666	-9.5755;
	11537	8566	0.001021	0.013969	0	0	0	0	0	0	1	-360	360	-25.0157	-6.7905	25.0220	6.8755;
	11537	7516	0.001169	0.011159	0	0	0	0	0	0	1	-360	360	25.0157	11.1864	-25.0078	-11.1105;
	13343	12066	0	0.000271	0	0	0	0	0	0	1	-360	360	-0.0000	0.0000	-0.0000	0.0000;
	3313	12066	0	0.000271	0	0	0	0	0	0	1	-360	360	-0.0000	0.0000	-0.0000	0.0000;
	1196	218	0.009372	0.035702	0	0	0	0	0	0	1	-360	360	12.0767	-3.2554	-12.0619	3.3117;
	1196	3002	0.029157	0.103686	0	0	0	0	0	0	1	-360	360	-12.0767	3.8908	12.1240	-3.7227;
	780	8041	0.00065	0.00673	0	0	0	0	0	0	1	-360	360	-14.3381	-181.3354	14.5435	183.4621;
	780	6114	0.00066	0.00658	0	0	0	0	0	0	1	-360	360	14.3381	210.8215	-14.0567	-208.0156;
	5179	3568	0.000969	0.006021	0	0	0	0	0	0	1	-360	360	-66.5907	-42.8258	66.6477	43.1796;
	5179	3085	0.00099	0.005901	0	0	0	0	0	0	1	-360	360	66.5907	45.4603	-66.5304	-45.1006;
	1666	7897	0.00088	0.006599	0	0	0	0	0	0	1	-360	360	0.7043	14.4704	-0.7025	-14.4571;
	1666	6301	0.00086	0.006729	0	0	0	0	0	0	1	-360	360	-0.7043	-12.1621	0.7055	12.1717;
	12861	4782	9e-05	0.00077	0	0	0	0	0	0	1	-360	360	386.6462	-220.1833	-386.4817	221.5903;
	12861	6207	9e-05	0.00078	0	0	0	0	0	0	1	-360	360	-386.6462	223.2280	386.8117	-221.7931;
	7212	4782	8e-05	0.00082	0	0	0	0	0	0	1	-360	360	131.1301	130.2997	-131.1050	-130.0423;
	7212	11151	8e-05	0.00076	0	0	0	0	0	0	1	-360	360	-131.1301	-127.5021	131.1547	127.7356;
	9869	8041	9e-05	0.00074	0	0	0	0	0	0	1	-360	360	296.2283	268.2530	-296.0948	-267.1550;
	9869	6207	9e-05	0.00073	0	0	0	0	0	0	1	-360	360	-296.2283	-265.0886	296.3605	266.1604;
	6015	3568	0.00062	0.003781	0	0	0	0	0	0	1	-360	360	-32.0435	-145.2372	32.1727	146.0250;
	6015	1131	0.000599	0.0035	0	0	0	0	0	0	1	-360	360	32.0435	146.1714	-31.9171	-145.4332;
	10035	7897	0.00064	0.00274	0	0	0	0	0	0	1	-360	360	160.0538	-113.8231	-159.8150	114.8456;
	10035	1910	0.000651	0.00268	0	0	0	0	0	0	1	-360	360	-160.0538	114.7120	160.2980	-113.7066;
	9951	1939	0.00055	0.00685	0	0	0	0	0	0	1	-360	360	-732.7317	-21.3293	735.5546	56.4870;
	9951	557	0.00061	0.00639	0	0	0	0	0	0	1	-360	360	732.7317	37.0965	-729.5955	-4.2435;
	8771	8041	0.00042	0.00523	0	0	0	0	0	0	1	-360	360	261.3738	-87.9759	-261.0737	91.7122;
	8771	12272	0.00045	0.00605	0	0	0	0	0	0	1	-360	360	-261.3738	99.1758	261.7041	-94.7347;
	8284	4782	0.0003	0.00228	0	0	0	0	0	0	1	-360	360	-83.7010	99.7198	83.7476	-99.3654;
	8284	13171	0.00026	0.00264	0	0	0	0	0	0	1	-360	360	83.7010	-93.0366	-83.6636	93.4158;
	4891	7738	0.00536	0.03568	0	0	0	0	0	0	1	-360	360	181.3840	27.8199	-179.6272	-16.1258;
...
];

%%-----  OPF Data  -----%%
%% generator cost data
%	1	startup	shutdown	n	x1	y1	...	xn	yn
%	2	startup	shutdown	n	c(n-1)	...	c0
mpc.gencost = [
	2	0	0	3	0	1	0;
	2	0	0	3	0	1	0;
	2	0	0	3	0	1	0;
	2	0	0	3	0	1	0;
	2	0	0	3	0	1	0;
	2	0	0	3	0	1	0;
	2	0	0	3	0	1	0;
	2	0	0	3	0	1	0;
	2	0	0	3	0	1	0;
	2	0	0	3	0	1	0;
	2	0	0	3	0	1	0;
	2	0	0	3	0	1	0;
	2	0	0	3	0	1	0;
	2	0	0	3	0	1	0;
	2	0	0	3	0	1	0;
	2	0	0	3	0	1	0;
	2	0	0	3	0	1	0;
	2	0	0	3	0	1	0;
	2	0	0	3	0	1	0;
	2	0	0	3	0	1	0;
	2	0	0	3	0	1	0;
	2	0	0	3	0	1	0;
	2	0	0	3	0	1	0;
	2	0	0	3	0	1	0;
	2	0	0	3	0	1	0;
	2	0	0	3	0	1	0;
	2	0	0	3	0	1	0;
	2	0	0	3	0	1	0;
	2	0	0	3	0	1	0;
	2	0	0	3	0	1	0;
	2	0	0	3	0	1	0;
	2	0	0	3	0	1	0;
	2	0	0	3	0	1	0;
	2	0	0	3	0	1	0;
	2	0	0	3	0	1	0;
	2	0	0	3	0	1	0;
	2	0	0	3	0	1	0;
	2	0	0	3	0	1	0;
	2	0	0	3	0	1	0;
	2	0	0	3	0	1	0;
	2	0	0	3	0	1	0;
	2	0	0	3	0	1	0;
	2	0	0	3	0	1	0;
	2	0	0	3	0	1	0;
	2	0	0	3	0	1	0;
	2	0	0	3	0	1	0;
	2	0	0	3	0	1	0;
	2	0	0	3	0	1	0;
	2	0	0	3	0	1	0;
	2	0	0	3	0	1	0;
	2	0	0	3	0	1	0;
	2	0	0	3	0	1	0;
	2	0	0	3	0	1	0;
	2	0	0	3	0	1	0;
	2	0	0	3	0	1	0;
	2	0	0	3	0	1	0;
	2	0	0	3	0	1	0;
	2	0	0	3	0	1	0;
	2	0	0	3	0	1	0;
	2	0	0	3	0	1	0;
	2	0	0	3	0	1	0;
	2	0	0	3	0	1	0;
	2	0	0	3	0	1	0;
	2	0	0	3	0	1	0;
	2	0	0	3	0	1	0;
	2	0	0	3	0	1	0;
	2	0	0	3	0	1	0;
	2	0	0	3	0	1	0;
	2	0	0	3	0	1	0;
	2	0	0	3	0	1	0;
	2	0	0	3	0	1	0;
	2	0	0	3	0	1	0;
	2	0	0	3	0	1	0;
	2	0	0	3	0	1	0;
	2	0	0	3	0	1	0;
	2	0	0	3	0	1	0;
	2	0	0	3	0	1	0;
	2	0	0	3	0	1	0;
	2	0	0	3	0	1	0;
	2	0	0	3	0	1	0;
	2	0	0	3	0	1	0;
	2	0	0	3	0	1	0;
	2	0	0	3	0	1	0;
	2	0	0	3	0	1	0;
	2	0	0	3	0	1	0;
	2	0	0	3	0	1	0;
	2	0	0	3	0	1	0;
	2	0	0	3	0	1	0;
	2	0	0	3	0	1	0;
	2	0	0	3	0	1	0;
	2	0	0	3	0	1	0;
	2	0	0	3	0	1	0;
	2	0	0	3	0	1	0;
	2	0	0	3	0	1	0;
	2	0	0	3	0	1	0;
	2	0	0	3	0	1	0;
	2	0	0	3	0	1	0;
	2	0	0	3	0	1	0;
	2	0	0	3	0	1	0;
	2	0	0	3	0	1	0;
	2	0	0	3	0	1	0;
	2	0	0	3	0	1	0;
	2	0	0	3	0	1	0;
	2	0	0	3	0	1	0;
	2	0	0	3	0	1	0;
	2	0	0	3	0	1	0;
	2	0	0	3	0	1	0;
	2	0	0	3	0	1	0;
	2	0	0	3	0	1	0;
	2	0	0	3	0	1	0;
	2	0	0	3	0	1	0;
	2	0	0	3	0	1	0;
	2	0	0	3	0	1	0;
	2	0	0	3	0	1	0;
	2	0	0	3	0	1	0;
	2	0	0	3	0	1	0;
	2	0	0	3	0	1	0;
	2	0	0	3	0	1	0;
	2	0	0	3	0	1	0;
	2	0	0	3	0	1	0;
	2	0	0	3	0	1	0;
	2	0	0	3	0	1	0;
	2	0	0	3	0	1	0;
	2	0	0	3	0	1	0;
	2	0	0	3	0	1	0;
	2	0	0	3	0	1	0;
	2	0	0	3	0	1	0;
	2	0	0	3	0	1	0;
	2	0	0	3	0	1	0;
	2	0	0	3	0	1	0;
	2	0	0	3	0	1	0;
	2	0	0	3	0	1	0;
	2	0	0	3	0	1	0;
	2	0	0	3	0	1	0;
	2	0	0	3	0	1	0;
	2	0	0	3	0	1	0;
	2	0	0	3	0	1	0;
	2	0	0	3	0	1	0;
	2	0	0	3	0	1	0;
	2	0	0	3	0	1	0;
	2	0	0	3	0	1	0;
	2	0	0	3	0	1	0;
	2	0	0	3	0	1	0;
	2	0	0	3	0	1	0;
	2	0	0	3	0	1	0;
	2	0	0	3	0	1	0;
	2	0	0	3	0	1	0;
	2	0	0	3	0	1	0;
	2	0	0	3	0	1	0;
	2	0	0	3	0	1	0;
	2	0	0	3	0	1	0;
	2	0	0	3	0	1	0;
	2	0	0	3	0	1	0;
	2	0	0	3	0	1	0;
	2	0	0	3	0	1	0;
	2	0	0	3	0	1	0;
	2	0	0	3	0	1	0;
	2	0	0	3	0	1	0;
	2	0	0	3	0	1	0;
	2	0	0	3	0	1	0;
	2	0	0	3	0	1	0;
	2	0	0	3	0	1	0;
	2	0	0	3	0	1	0;
	2	0	0	3	0	1	0;
	2	0	0	3	0	1	0;
	2	0	0	3	0	1	0;
	2	0	0	3	0	1	0;
	2	0	0	3	0	1	0;
	2	0	0	3	0	1	0;
	2	0	0	3	0	1	0;
	2	0	0	3	0	1	0;
	2	0	0	3	0	1	0;
	2	0	0	3	0	1	0;
	2	0	0	3	0	1	0;
	2	0	0	3	0	1	0;
	2	0	0	3	0	1	0;
	2	0	0	3	0	1	0;
	2	0	0	3	0	1	0;
	2	0	0	3	0	1	0;
	2	0	0	3	0	1	0;
	2	0	0	3	0	1	0;
	2	0	0	3	0	1	0;
	2	0	0	3	0	1	0;
	2	0	0	3	0	1	0;
	2	0	0	3	0	1	0;
	2	0	0	3	0	1	0;
	2	0	0	3	0	1	0;
	2	0	0	3	0	1	0;
	2	0	0	3	0	1	0;
	2	0	0	3	0	1	0;
	2	0	0	3	0	1	0;
	2	0	0	3	0	1	0;
	2	0	0	3	0	1	0;
	2	0	0	3	0	1	0;
	2	0	0	3	0	1	0;
	2	0	0	3	0	1	0;
	2	0	0	3	0	1	0;
	2	0	0	3	0	1	0;
	2	0	0	3	0	1	0;
	2	0	0	3	0	1	0;
...
];
